LIB = $(SOWFA_LIBBIN)/libSOWFATurbineModelsOpenFAST
